%chk=gauss.chk
%nprocs=6
%mem=6GB
#p guess=read  B3LYP STO-3G td=(nstates=6, root=2)  force nosymm

This is test

0 1
C      1.4105759833      0.9663119627      0.3839853462 
C      0.1586874778      1.6025465690     -0.3767766449 
C     -1.1890919892      1.2221927776      0.0976384088 
C     -1.1991127154     -0.2933199993      0.1468596114 
C     -0.0520333538     -1.0869371397     -0.1200522620 
C      1.3826153546     -0.5398133290      0.0176349874 
O      2.3167021661     -1.2887932724     -0.1565788390 
N     -2.3579197079     -0.8822220390      0.1075439313 
H      2.2705181372      1.3237856925      0.0883875048 
H      1.3096762964      1.1149565935      1.3764002524 
H      0.3816258231      2.7220649882     -0.3951074355 
H      0.1989058526      1.5738523812     -1.4939339968 
H     -1.9306555223      1.4579932562     -0.5835555145 
H     -1.5001177054      1.5126960056      1.1772581847 
H     -0.4266178356     -2.1612969613     -0.4790779241 
H     -3.2457344373     -0.3324494030      0.0807141526 
H     -2.5222035082     -2.1150301716     -0.1528899882